[General]
network = SelfishMining
simtime-resolution = us
cmdenv-log-prefix = "[%l] %C - "
sim-time-limit = 48h
**.statistic-recording = true
**.result-recording-modes = all
**.coinbaseMaturity = 15
**.chainHistory = 20
