[General]
network = Test3
simtime-resolution = us
cmdenv-log-prefix = "[%l] %C - "
sim-time-limit = 48h
