include omnetpp.ini

[Config StandardBitcoin]
description = "Standard Bitcoin Network Proof of Concept"
BitcoinNetwork.numNodes = 62
BitcoinNetwork.numMiners = 10
BitcoinNetwork.node[0].app[*].txGenInterval = exponential(5min)
BitcoinNetwork.node[1].app[*].txGenInterval = exponential(1s)
BitcoinNetwork.node[*].app[*].txGenInterval = exponential(20s)
BitcoinNetwork.miner[*].app[*].txGenInterval = exponential(20s)
BitcoinNetwork.miner[0].app[*].hashRate = 0.1
BitcoinNetwork.miner[1].app[*].hashRate = 0.4
BitcoinNetwork.miner[2].app[*].hashRate = 0.5
BitcoinNetwork.miner[3].app[*].hashRate = 1
BitcoinNetwork.miner[4].app[*].hashRate = 3
BitcoinNetwork.miner[5].app[*].hashRate = 5
BitcoinNetwork.miner[6].app[*].hashRate = 10
BitcoinNetwork.miner[7].app[*].hashRate = 15
BitcoinNetwork.miner[8].app[*].hashRate = 25
BitcoinNetwork.miner[9].app[*].hashRate = 40
**.coinbaseMaturity = 4
**.statistic-recording = true
**.result-recording-modes = default
cmdenv-redirect-output = true
sim-time-limit = 3d
repeat = 30

[Config SelfishMining]
description = "Selfish Mining Proof of Concept"
BitcoinNetwork.numNodes = 50
BitcoinNetwork.numMiners = 5
BitcoinNetwork.miner[0].blockchainManager.typename = "iblock.bitcoin.apps.SelfishBCManager"
BitcoinNetwork.miner[0].app[*].hashRate = ${H=8.8888889, 20, 34.2857143, 53.3333333, 65.4545455, 80}
**.coinbaseMaturity = 12
**.txGenInterval = exponential(15s)
**.statistic-recording = true
**.result-recording-modes = default
BitcoinNetwork.miner[0].blockchainManager.maxSelfishChainLength = 10
cmdenv-redirect-output = true
sim-time-limit = 2d
repeat = 20

[Config HonestMining]
description = "Selfish Mining Proof of Concept - Honest mining"
BitcoinNetwork.numNodes = 50
BitcoinNetwork.numMiners = 5
BitcoinNetwork.miner[0].app[*].hashRate = ${H=8.8888889, 20, 34.2857143, 53.3333333, 65.4545455, 80}
**.coinbaseMaturity = 12
**.txGenInterval = exponential(15s)
**.statistic-recording = true
**.result-recording-modes = default
cmdenv-redirect-output = true
sim-time-limit = 2d
repeat = 20

[Config SelfishMiningNoTx]
description = "Selfish Mining Proof of Concept - Without transactions"
BitcoinNetwork.numNodes = 50
BitcoinNetwork.numMiners = 5
BitcoinNetwork.miner[0].blockchainManager.typename = "iblock.bitcoin.apps.SelfishBCManager"
BitcoinNetwork.miner[0].blockchainManager.maxSelfishChainLength = 10
BitcoinNetwork.miner[0].app[*].hashRate = ${H=8.8888889, 20, 34.2857143, 53.3333333, 65.4545455, 80}
**.coinbaseMaturity = 12
**.txGenInterval = 15min
**.feeRate = exponential(12000sat)
**.statistic-recording = true
**.result-recording-modes = default
cmdenv-redirect-output = true
sim-time-limit = 2d
repeat = 20

[Config HonestMiningNoTx]
description = "Selfish Mining Proof of Concept - Honest mining without transactions"
BitcoinNetwork.numNodes = 5
BitcoinNetwork.numMiners = 5
BitcoinNetwork.miner[0].app[*].hashRate = ${H=8.8888889, 20, 34.2857143, 53.3333333, 65.4545455, 80}
**.coinbaseMaturity = 100
**.txGenInterval = 101d
**.statistic-recording = true
**.result-recording-modes = default
cmdenv-redirect-output = true
sim-time-limit = 50d
repeat = 20

[Config PingPong]
description = "Ping-Pong example"
network = PingPongNetwork
**.statistic-recording = false
cmdenv-redirect-output = true
