include omnetpp.ini

[Config SimpleTest]
description = "Simple test config"
BitcoinNetwork.numNodes = 3
BitcoinNetwork.numMiners = 1
**.txGenInterval = exponential(60s)
**.coinbaseMaturity = 2
**.statistic-recording = false

[Config SmokeTest]
description = "A long-running config"
BitcoinNetwork.numNodes = 10
BitcoinNetwork.numMiners = 3
**.txGenInterval = exponential(5s)
sim-time-limit = 20d
**.statistic-recording = false

[Config MemoryTest]
description = "Config used to test for memory leaks with Valgrind"
BitcoinNetwork.numNodes = 50
BitcoinNetwork.numMiners = 10
**.txGenInterval = exponential(15s)
**.coinbaseMaturity = 2
**.statistic-recording = false
sim-time-limit = 1h
seed-set = 1
print-undisposed = true

[Config FingerprintTest]
description = "Config used for the deterministic test using OMNeT++ fingerprints"
BitcoinNetwork.numNodes = 10
BitcoinNetwork.numMiners = 3
**.txGenInterval = exponential(10s)
**.result-recording-modes = all
sim-time-limit = 24h
seed-set = 1
repeat = 100
fingerprint = 5250-e519/etnlprszv
